$# LS-DYNA Keyword file created by LS-PrePost 4.2 (Beta) - 27Jul2014(12:00)
$# Created on Nov-5-2014 (21:47:47)
*KEYWORD
*TITLE
$#                                                                         title
Short Crush Tube Impacted by a Moving Wall
*CONTROL_ENERGY
$     hgen      rwen    slnten     rylen
$#    hgen      rwen    slnten     rylen     
         2         2         1         1
$   - Remove corner elements on desired initial crush area (8 shells)
$   - Update material section to make Sy consistent and to make the section
$       read much easier
$   - comment and clean-up
$  J.D. Reid    2/14/95, 1/17/96, 2/15/00
$  Units: mm, kg, ms, kN, GPa, kN-mm
$$$$$$$$$$$$$$$$$$$$$$$$$$$$$$$$$$$$$$$$$$$$$$$$$$$$$$$$$$$$$$$$$$$$$$$$$$$$$$$$
$$$$  Control Ouput
$$$$$$$$$$$$$$$$$$$$$$$$$$$$$$$$$$$$$$$$$$$$$$$$$$$$$$$$$$$$$$$$$$$$$$$$$$$$$$$$
$...>....1....>....2....>....3....>....4....>....5....>....6....>....7....>....8
*CONTROL_TERMINATION
$   endtim    endcyc     dtmin    endeng    endmas
$#  endtim    endcyc     dtmin    endeng    endmas      
 20.000000         0     0.000     0.000 1.0000E+8
*DATABASE_GLSTAT
$       dt
$#      dt    binary      lcur     ioopt     
  0.100000         0         0         1
*DATABASE_MATSUM
$       dt
$#      dt    binary      lcur     ioopt     
  0.100000         0         0         1
*DATABASE_NODOUT
$       dt
$#      dt    binary      lcur     ioopt   option1   option2       
  0.100000         0         0         1     0.000         0
*DATABASE_RWFORC
$       dt
$#      dt    binary      lcur     ioopt     
  0.100000         0         0         1
*DATABASE_SLEOUT
$       dt
$#      dt    binary      lcur     ioopt     
  0.100000         0         0         1
*DATABASE_BINARY_D3PLOT
$       dt       lcdt
$#      dt      lcdt      beam     npltc    psetid      
  1.000000         0         0         0         0
$#   ioopt     
         0
*DATABASE_BINARY_D3THDT
$       dt       lcdt
$#      dt      lcdt      beam     npltc    psetid      
 1.0000E+6         0         0         0         0
*DATABASE_EXTENT_BINARY
$    neiph     neips    maxint    strflg    sigflg    epsflg    rltflg    engflg
$#   neiph     neips    maxint    strflg    sigflg    epsflg    rltflg    engflg
         0         0         3         0         1         1         1         1
$   cmpflg    ieverp    beamip
$#  cmpflg    ieverp    beamip     dcomp      shge     stssz    n3thdt   ialemat
         0         1         0         1         1         1         2         1
*DATABASE_HISTORY_NODE
$      id1       id2       id3
$#     id1       id2       id3       id4       id5       id6       id7       id8
     99999       259         7         0         0         0         0         0
$$$$$$$$$$$$$$$$$$$$$$$$$$$$$$$$$$$$$$$$$$$$$$$$$$$$$$$$$$$$$$$$$$$$$$$$$$$$$$$$
$$$$  Define Constraints, Boundary & Initial Conditions
$$$$$$$$$$$$$$$$$$$$$$$$$$$$$$$$$$$$$$$$$$$$$$$$$$$$$$$$$$$$$$$$$$$$$$$$$$$$$$$$
$...>....1....>....2....>....3....>....4....>....5....>....6....>....7....>....8
$$$$   Nodal single point constraints
*BOUNDARY_SPC_NODE
$      nid cid x y z rx ry rz
$#     nid       cid      dofx      dofy      dofz     dofrx     dofry     dofrz
         1         0         1         1         1         1         1         1
         2         0         1         1         1         1         1         1
         3         0         1         1         1         1         1         1
         4         0         1         1         1         1         1         1
         5         0         1         1         1         1         1         1
         6         0         1         1         1         1         1         1
         7         0         1         1         1         1         1         1
       414         0         1         1         1         1         1         1
       415         0         1         1         1         1         1         1
       532         0         1         1         1         1         1         1
       533         0         1         1         1         1         1         1
       534         0         1         1         1         1         1         1
       535         0         1         1         1         1         1         1
       536         0         1         1         1         1         1         1
       827         0         1         1         1         1         1         1
       828         0         1         1         1         1         1         1
       829         0         1         1         1         1         1         1
       830         0         1         1         1         1         1         1
       831         0         1         1         1         1         1         1
       832         0         1         1         1         1         1         1
$ ... 32 like lines cut
$$$$$$$$$$$$$$$$$$$$$$$$$$$$$$$$$$$$$$$$$$$$$$$$$$$$$$$$$$$$$$$$$$$$$$$$$$$$$$$$
$$$$  Define Contacts - Sliding Interfaces
$$$$$$$$$$$$$$$$$$$$$$$$$$$$$$$$$$$$$$$$$$$$$$$$$$$$$$$$$$$$$$$$$$$$$$$$$$$$$$$$
$...>....1....>....2....>....3....>....4....>....5....>....6....>....7....>....8
*CONTACT_AUTOMATIC_SINGLE_SURFACE
$#     cid                                                                 title
$     ssid      msid     sstyp     mstyp    sboxid    mboxid       spr       mpr
$  Equating ssid to zero means that all segments are included in the contact
$       fs        fd        dc        vc       vdc    penchk        bt        dt
$      sfs       sfm       sst       mst      sfst      sfmt       fsf       vsf
$$$$$$$$$$$$$$$$$$$$$$$$$$$$$$$$$$$$$$$$$$$$$$$$$$$$$$$$$$$$$$$$$$$$$$$$$$$$$$$$
$$$$  Define Stone Walls
$$$$$$$$$$$$$$$$$$$$$$$$$$$$$$$$$$$$$$$$$$$$$$$$$$$$$$$$$$$$$$$$$$$$$$$$$$$$$$$$
$...>....1....>....2....>....3....>....4....>....5....>....6....>....7....>....8
$#    ssid      msid     sstyp     mstyp    sboxid    mboxid       spr       mpr
         0         0         0         0         0         0         0         0
$#      fs        fd        dc        vc       vdc    penchk        bt        dt
 8.0000E-2 8.0000E-2     0.000     0.000     0.000         0     0.0001.0000E+20
$#     sfs       sfm       sst       mst      sfst      sfmt       fsf       vsf
     0.000  1.000000     0.000     0.000  1.000000  1.000000  1.000000  1.000000
$$$$$$$$$$$$$$$$$$$$$$$$$$$$$$$$$$$$$$$$$$$$$$$$$$$$$$$$$$$$$$$$$$$$$$$$$$$$$$$$
$$$$  Define Materials and Parts
$$$$$$$$$$$$$$$$$$$$$$$$$$$$$$$$$$$$$$$$$$$$$$$$$$$$$$$$$$$$$$$$$$$$$$$$$$$$$$$$
$...>....1....>....2....>....3....>....4....>....5....>....6....>....7....>....8
*PART
$      pid       sid       mid     eosid      hgid      grav    adpopt      tmid
$#                                                                         title
corner 1
$#     pid     secid       mid     eosid      hgid      grav    adpopt      tmid
         1         1         1         0         0         0         0         0
*SECTION_SHELL
$      sid    elform      shrf       nip     propt   qr/irid     icomp
$#   secid    elform      shrf       nip     propt   qr/irid     icomp     setyp
         1         2     0.000         3         1         0         0         1
$       t1        t2        t3        t4      nloc
$#      t1        t2        t3        t4      nloc     marea      idof    edgset
  2.000000  2.000000  2.000000  2.000000     0.000     0.000     0.000         0
*MAT_PIECEWISE_LINEAR_PLASTICITY
$      mid        ro         e        pr      sigy      etan      eppf      tdel
$#     mid        ro         e        pr      sigy      etan      fail      tdel
         1 7.8300E-6 200.00000  0.300000  0.366000     0.000  0.750000     0.000
$        C         p      lcss      lcsr
$#       c         p      lcss      lcsr        vp  
 40.000000  5.000000         0         0     0.000
$ Values for plastic stress/strain curves
$#    eps1      eps2      eps3      eps4      eps5      eps6      eps7      eps8
     0.000 2.5000E-2 4.9000E-2 7.2000E-2 9.5000E-2  0.118000  0.140000  0.182000
$#     es1       es2       es3       es4       es5       es6       es7       es8
  0.366000  0.424000  0.476000  0.507000  0.529000  0.546000  0.559000  0.584000
*PART
$#                                                                         title
corner 2
$#     pid     secid       mid     eosid      hgid      grav    adpopt      tmid
         2         1         1         0         0         0         0         0
*PART
$#                                                                         title
corner 3
$#     pid     secid       mid     eosid      hgid      grav    adpopt      tmid
         3         1         1         0         0         0         0         0
*PART
$#                                                                         title
corner 4
$#     pid     secid       mid     eosid      hgid      grav    adpopt      tmid
         4         1         1         0         0         0         0         0
*RIGIDWALL_PLANAR_MOVING_FORCES_ID
$#      id                                                                 title
         1                                                                     
$     nsid    nsidex     boxid
$#    nsid    nsidex     boxid    offset     birth     death     rwksf     
         0         0         0     0.000     0.0001.0000E+20  1.000000
$       xt        yt        zt        xh        yh        zh      fric
$#      xt        yt        zt        xh        yh        zh      fric      wvel
     0.000     0.000 274.00000     0.000     0.000     0.000  1.000000     0.000
$  sw mass    sw vel
$#    mass        v0  
 800.00000  8.940000
$     soft      ssid     node1     node2     node3     node4
$#    soft      ssid        n1        n2        n3        n4  
         0         0     99999         0         0         0
*ELEMENT_SHELL
$#   eid     pid      n1      n2      n3      n4      n5      n6      n7      n8
       1       1       1       2       9       9       0       0       0       0
       2       1       2       3      10      10       0       0       0       0
       3       1       3       4      11      11       0       0       0       0
       4       1       4       5      12      12       0       0       0       0
       5       1       5       6      13      13       0       0       0       0
       6       1       6       7      14      14       0       0       0       0
       7       1       8       9      16      16       0       0       0       0
       8       1       9      10      17      17       0       0       0       0
       9       1      10      11      18      18       0       0       0       0
      10       1      11      12      19      19       0       0       0       0
      11       1      12      13      20      20       0       0       0       0
      12       1      13      14      21      21       0       0       0       0
      13       1      15      16      23      23       0       0       0       0
      14       1      16      17      24      24       0       0       0       0
      15       1      17      18      25      25       0       0       0       0
      16       1      18      19      26      26       0       0       0       0
      17       1      19      20      27      27       0       0       0       0
      18       1      20      21      28      28       0       0       0       0
      19       1      22      23      30      30       0       0       0       0
      20       1      23      24      31      31       0       0       0       0
$ ... 256 like lines cut
$     409       1     211     474     476     218
$     410       1     474     475     477     476
     411       1     218     476     478     478       0       0       0       0
     412       1     476     477     479     479       0       0       0       0
     413       1     225     478     480     480       0       0       0       0
     414       1     478     479     481     481       0       0       0       0
     415       1     232     480     482     482       0       0       0       0
     416       1     480     481     483     483       0       0       0       0
     417       1     239     482     484     484       0       0       0       0
     418       1     482     483     485     485       0       0       0       0
     419       1     246     484     486     486       0       0       0       0
     420       1     484     485     487     487       0       0       0       0
     463       1     532     533     538     538       0       0       0       0
     464       1     533     534     539     539       0       0       0       0
     465       1     534     535     540     540       0       0       0       0
     466       1     535     536     541     541       0       0       0       0
     467       1     536     415     417     417       0       0       0       0
     468       1     537     538     543     543       0       0       0       0
     469       1     538     539     544     544       0       0       0       0
     470       1     539     540     545     545       0       0       0       0
     471       1     540     541     546     546       0       0       0       0
     472       1     541     417     419     419       0       0       0       0
$ ... 169 like lines cut
$    nid               x               y               z      tc      rc
$    eid     pid      n1      n2      n3      n4
     752       1     547     552     553     553       0       0       0       0
     753       1     553     548     547     547       0       0       0       0
     756       2    1653    1659    1660    1660       0       0       0       0
     757       2    1654    1660    1661    1661       0       0       0       0
     758       2    1655    1661    1662    1662       0       0       0       0
     759       2    1656    1662    1663    1663       0       0       0       0
     760       2    1657    1663    1664    1664       0       0       0       0
     761       2    1658    1664      14      14       0       0       0       0
     762       2    1659    1665    1666    1666       0       0       0       0
     763       2    1660    1666    1667    1667       0       0       0       0
     764       2    1661    1667    1668    1668       0       0       0       0
     765       2    1662    1668    1669    1669       0       0       0       0
     766       2    1663    1669    1670    1670       0       0       0       0
     767       2    1664    1670      21      21       0       0       0       0
     768       2    1665    1671    1672    1672       0       0       0       0
     769       2    1666    1672    1673    1673       0       0       0       0
     770       2    1667    1673    1674    1674       0       0       0       0
     771       2    1668    1674    1675    1675       0       0       0       0
     772       2    1669    1675    1676    1676       0       0       0       0
     773       2    1670    1676      28      28       0       0       0       0
$ ... 258 like lines cut
$    1164       2    1833    1839    2069    2067
$    1165       2    2067    2069    2070    2068
    1166       2    1839    1845    2071    2071       0       0       0       0
    1167       2    2069    2071    2072    2072       0       0       0       0
    1168       2    1845    1851    2073    2073       0       0       0       0
    1169       2    2071    2073    2074    2074       0       0       0       0
    1170       2    1851    1857    2075    2075       0       0       0       0
    1171       2    2073    2075    2076    2076       0       0       0       0
    1172       2    1857    1863    2077    2077       0       0       0       0
    1173       2    2075    2077    2078    2078       0       0       0       0
    1174       2    1863    1869    2079    2079       0       0       0       0
    1175       2    2077    2079    2080    2080       0       0       0       0
    1218       2    1358    1363    2129    2129       0       0       0       0
    1219       2    2125    2129    2130    2130       0       0       0       0
    1220       2    2126    2130    2131    2131       0       0       0       0
    1221       2    2127    2131    2132    2132       0       0       0       0
    1222       2    2128    2132    2010    2010       0       0       0       0
    1223       2    1363    1368    2133    2133       0       0       0       0
    1224       2    2129    2133    2134    2134       0       0       0       0
    1225       2    2130    2134    2135    2135       0       0       0       0
    1226       2    2131    2135    2136    2136       0       0       0       0
    1227       2    2132    2136    2012    2012       0       0       0       0
$ ... 447 like lines cut
$    1919       3    1037    1300    1302    1044
$    1920       3    1300    1301    1303    1302
    1921       3    1044    1302    1304    1304       0       0       0       0
    1922       3    1302    1303    1305    1305       0       0       0       0
    1923       3    1051    1304    1306    1306       0       0       0       0
    1924       3    1304    1305    1307    1307       0       0       0       0
    1925       3    1058    1306    1308    1308       0       0       0       0
    1926       3    1306    1307    1309    1309       0       0       0       0
    1927       3    1065    1308    1310    1310       0       0       0       0
    1928       3    1308    1309    1311    1311       0       0       0       0
    1929       3    1072    1310    1312    1312       0       0       0       0
    1930       3    1310    1311    1313    1313       0       0       0       0
    1973       3    1358    1359    1364    1364       0       0       0       0
    1974       3    1359    1360    1365    1365       0       0       0       0
    1975       3    1360    1361    1366    1366       0       0       0       0
    1976       3    1361    1362    1367    1367       0       0       0       0
    1977       3    1362    1241    1243    1243       0       0       0       0
    1978       3    1363    1364    1369    1369       0       0       0       0
    1979       3    1364    1365    1370    1370       0       0       0       0
    1980       3    1365    1366    1371    1371       0       0       0       0
    1981       3    1366    1367    1372    1372       0       0       0       0
    1982       3    1367    1243    1245    1245       0       0       0       0
$ ... 447 like lines cut
$    2674       4    2541    2547    2777    2775
$    2675       4    2775    2777    2778    2776
    2676       4    2547    2553    2779    2779       0       0       0       0
    2677       4    2777    2779    2780    2780       0       0       0       0
    2678       4    2553    2559    2781    2781       0       0       0       0
    2679       4    2779    2781    2782    2782       0       0       0       0
    2680       4    2559    2565    2783    2783       0       0       0       0
    2681       4    2781    2783    2784    2784       0       0       0       0
    2682       4    2565    2571    2785    2785       0       0       0       0
    2683       4    2783    2785    2786    2786       0       0       0       0
    2684       4    2571    2577    2787    2787       0       0       0       0
    2685       4    2785    2787    2788    2788       0       0       0       0
    2728       4     532     537    2837    2837       0       0       0       0
    2729       4    2833    2837    2838    2838       0       0       0       0
    2730       4    2834    2838    2839    2839       0       0       0       0
    2731       4    2835    2839    2840    2840       0       0       0       0
    2732       4    2836    2840    2718    2718       0       0       0       0
    2733       4     537     542    2841    2841       0       0       0       0
    2734       4    2837    2841    2842    2842       0       0       0       0
    2735       4    2838    2842    2843    2843       0       0       0       0
    2736       4    2839    2843    2844    2844       0       0       0       0
    2737       4    2840    2844    2720    2720       0       0       0       0
$ ... 447 like lines cut
$     409       1     211     474     476     218
$     410       1     474     475     477     476
    3295       1     218     478     225     225       0       0       0       0
    3296       1     476     479     478     478       0       0       0       0
    3297       1     225     480     232     232       0       0       0       0
    3298       1     478     481     480     480       0       0       0       0
    3299       1     232     482     239     239       0       0       0       0
    3300       1     480     483     482     482       0       0       0       0
    3301       1     239     484     246     246       0       0       0       0
    3302       1     482     485     484     484       0       0       0       0
    3303       1     246     486     253     253       0       0       0       0
    3304       1     484     487     486     486       0       0       0       0
    3305       1     532     538     537     537       0       0       0       0
    3306       1     533     539     538     538       0       0       0       0
    3307       1     534     540     539     539       0       0       0       0
    3308       1     535     541     540     540       0       0       0       0
    3309       1     536     417     541     541       0       0       0       0
    3310       1     537     543     542     542       0       0       0       0
    3311       1     538     544     543     543       0       0       0       0
    3312       1     539     545     544     544       0       0       0       0
    3313       1     540     546     545     545       0       0       0       0
    3314       1     541     419     546     546       0       0       0       0
$ ... 445 like lines cut
$    1164       2    1833    1839    2069    2067
$    1165       2    2067    2069    2070    2068
    3760       2    1839    2071    2069    2069       0       0       0       0
    3761       2    2069    2072    2070    2070       0       0       0       0
    3762       2    1845    2073    2071    2071       0       0       0       0
    3763       2    2071    2074    2072    2072       0       0       0       0
    3764       2    1851    2075    2073    2073       0       0       0       0
    3765       2    2073    2076    2074    2074       0       0       0       0
    3766       2    1857    2077    2075    2075       0       0       0       0
    3767       2    2075    2078    2076    2076       0       0       0       0
    3768       2    1863    2079    2077    2077       0       0       0       0
    3769       2    2077    2080    2078    2078       0       0       0       0
    3770       2    1358    2129    2125    2125       0       0       0       0
    3771       2    2125    2130    2126    2126       0       0       0       0
    3772       2    2126    2131    2127    2127       0       0       0       0
    3773       2    2127    2132    2128    2128       0       0       0       0
    3774       2    2128    2010    2008    2008       0       0       0       0
    3775       2    1363    2133    2129    2129       0       0       0       0
    3776       2    2129    2134    2130    2130       0       0       0       0
    3777       2    2130    2135    2131    2131       0       0       0       0
    3778       2    2131    2136    2132    2132       0       0       0       0
    3779       2    2132    2012    2010    2010       0       0       0       0
$ ... 445 like lines cut
$    1919       3    1037    1300    1302    1044
$    1920       3    1300    1301    1303    1302
    4225       3    1044    1304    1051    1051       0       0       0       0
    4226       3    1302    1305    1304    1304       0       0       0       0
    4227       3    1051    1306    1058    1058       0       0       0       0
    4228       3    1304    1307    1306    1306       0       0       0       0
    4229       3    1058    1308    1065    1065       0       0       0       0
    4230       3    1306    1309    1308    1308       0       0       0       0
    4231       3    1065    1310    1072    1072       0       0       0       0
    4232       3    1308    1311    1310    1310       0       0       0       0
    4233       3    1072    1312    1079    1079       0       0       0       0
    4234       3    1310    1313    1312    1312       0       0       0       0
    4235       3    1358    1364    1363    1363       0       0       0       0
    4236       3    1359    1365    1364    1364       0       0       0       0
    4237       3    1360    1366    1365    1365       0       0       0       0
    4238       3    1361    1367    1366    1366       0       0       0       0
    4239       3    1362    1243    1367    1367       0       0       0       0
    4240       3    1363    1369    1368    1368       0       0       0       0
    4241       3    1364    1370    1369    1369       0       0       0       0
    4242       3    1365    1371    1370    1370       0       0       0       0
    4243       3    1366    1372    1371    1371       0       0       0       0
    4244       3    1367    1245    1372    1372       0       0       0       0
$ ... 445 like lines cut
$    2674       4    2541    2547    2777    2775
$    2675       4    2775    2777    2778    2776
    4690       4    2547    2779    2777    2777       0       0       0       0
    4691       4    2777    2780    2778    2778       0       0       0       0
    4692       4    2553    2781    2779    2779       0       0       0       0
    4693       4    2779    2782    2780    2780       0       0       0       0
    4694       4    2559    2783    2781    2781       0       0       0       0
    4695       4    2781    2784    2782    2782       0       0       0       0
    4696       4    2565    2785    2783    2783       0       0       0       0
    4697       4    2783    2786    2784    2784       0       0       0       0
    4698       4    2571    2787    2785    2785       0       0       0       0
    4699       4    2785    2788    2786    2786       0       0       0       0
    4700       4     532    2837    2833    2833       0       0       0       0
    4701       4    2833    2838    2834    2834       0       0       0       0
    4702       4    2834    2839    2835    2835       0       0       0       0
    4703       4    2835    2840    2836    2836       0       0       0       0
    4704       4    2836    2718    2716    2716       0       0       0       0
    4705       4     537    2841    2837    2837       0       0       0       0
    4706       4    2837    2842    2838    2838       0       0       0       0
    4707       4    2838    2843    2839    2839       0       0       0       0
    4708       4    2839    2844    2840    2840       0       0       0       0
    4709       4    2840    2720    2718    2718       0       0       0       0
$ ... 169 like lines cut
*NODE
$#   nid               x               y               z      tc      rc  
       1        8.000000           0.000           0.000       0       0
       2       16.333300           0.000           0.000       0       0
       3       24.666700           0.000           0.000       0       0
       4       33.000000           0.000           0.000       0       0
       5       41.333302           0.000           0.000       0       0
       6       49.666698           0.000           0.000       0       0
       7       58.000000           0.000           0.000       0       0
       8        8.000000           0.000        7.568970       0       0
       9       16.333300           0.000        7.568970       0       0
      10       24.666700           0.000        7.568970       0       0
      11       33.000000           0.000        7.568970       0       0
      12       41.333302           0.000        7.568970       0       0
      13       49.666698           0.000        7.568970       0       0
      14       58.000000           0.000        7.568970       0       0
      15        8.000000           0.000       15.137900       0       0
      16       16.333300           0.000       15.137900       0       0
      17       24.666700           0.000       15.137900       0       0
      18       33.000000           0.000       15.137900       0       0
      19       41.333302           0.000       15.137900       0       0
      20       49.666698           0.000       15.137900       0       0
$ ... 1904 like lines cut
*END
