*KEYWORD
*TITLE
Short Crush Tube Impacted by a Moving Wall
$
$   - Remove corner elements on desired initial crush area (8 shells)
$   - Update material section to make Sy consistent and to make the section
$       read much easier
$   - comment and clean-up
$
$
$  J.D. Reid    2/14/95, 1/17/96, 2/15/00
$
$  Units: mm, kg, ms, kN, GPa, kN-mm
$
$$$$$$$$$$$$$$$$$$$$$$$$$$$$$$$$$$$$$$$$$$$$$$$$$$$$$$$$$$$$$$$$$$$$$$$$$$$$$$$$
$
$$$$  Control Ouput
$
$$$$$$$$$$$$$$$$$$$$$$$$$$$$$$$$$$$$$$$$$$$$$$$$$$$$$$$$$$$$$$$$$$$$$$$$$$$$$$$$
$
$...>....1....>....2....>....3....>....4....>....5....>....6....>....7....>....8
$
*CONTROL_TERMINATION 
$   endtim    endcyc     dtmin    endeng    endmas
     20.00
$
*CONTROL_ENERGY
$     hgen      rwen    slnten     rylen
         2         2
$
*DATABASE_BINARY_D3PLOT
$       dt       lcdt
       1.0
$
*DATABASE_EXTENT_BINARY
$    neiph     neips    maxint    strflg    sigflg    epsflg    rltflg    engflg

$   cmpflg    ieverp    beamip
                   1
$
*DATABASE_BINARY_D3THDT
$       dt       lcdt
    999999
$
$
*DATABASE_GLSTAT
$       dt
       0.1
$
*DATABASE_MATSUM
$       dt
       0.1
$      
*DATABASE_NODOUT
$       dt
       0.1
$
*DATABASE_HISTORY_NODE
$      id1       id2       id3
     99999       259         7
$
*DATABASE_RWFORC
$       dt
       0.1
$
*DATABASE_SLEOUT
$       dt
       0.1
$
$$$$$$$$$$$$$$$$$$$$$$$$$$$$$$$$$$$$$$$$$$$$$$$$$$$$$$$$$$$$$$$$$$$$$$$$$$$$$$$$
$
$$$$  Define Contacts - Sliding Interfaces
$
$$$$$$$$$$$$$$$$$$$$$$$$$$$$$$$$$$$$$$$$$$$$$$$$$$$$$$$$$$$$$$$$$$$$$$$$$$$$$$$$
$
$...>....1....>....2....>....3....>....4....>....5....>....6....>....7....>....8
$
*CONTACT_AUTOMATIC_SINGLE_SURFACE
$     ssid      msid     sstyp     mstyp    sboxid    mboxid       spr       mpr
         0
$  Equating ssid to zero means that all segments are included in the contact
$
$       fs        fd        dc        vc       vdc    penchk        bt        dt
      0.08      0.08
$
$      sfs       sfm       sst       mst      sfst      sfmt       fsf       vsf

$
$
$$$$$$$$$$$$$$$$$$$$$$$$$$$$$$$$$$$$$$$$$$$$$$$$$$$$$$$$$$$$$$$$$$$$$$$$$$$$$$$$
$
$$$$  Define Stone Walls
$
$$$$$$$$$$$$$$$$$$$$$$$$$$$$$$$$$$$$$$$$$$$$$$$$$$$$$$$$$$$$$$$$$$$$$$$$$$$$$$$$
$
$...>....1....>....2....>....3....>....4....>....5....>....6....>....7....>....8
$
*RIGIDWALL_PLANAR_MOVING_FORCES
$     nsid    nsidex     boxid
         0         0         0
$
$       xt        yt        zt        xh        yh        zh      fric
       0.0       0.0     274.0       0.0       0.0       0.0       1.0
$
$  sw mass    sw vel
   800.000      8.94
$
$     soft      ssid     node1     node2     node3     node4
         0         0     99999
$
$
$$$$$$$$$$$$$$$$$$$$$$$$$$$$$$$$$$$$$$$$$$$$$$$$$$$$$$$$$$$$$$$$$$$$$$$$$$$$$$$$
$
$$$$  Define Materials and Parts
$
$$$$$$$$$$$$$$$$$$$$$$$$$$$$$$$$$$$$$$$$$$$$$$$$$$$$$$$$$$$$$$$$$$$$$$$$$$$$$$$$
$ 
$...>....1....>....2....>....3....>....4....>....5....>....6....>....7....>....8
$
*PART
$      pid       sid       mid     eosid      hgid      grav    adpopt      tmid
corner 1
         1         1         1
corner 2
         2         1         1
corner 3
         3         1         1
corner 4
         4         1         1
$
$
*MAT_PIECEWISE_LINEAR_PLASTICITY
$      mid        ro         e        pr      sigy      etan      eppf      tdel
         1 7.830E-06     200.0       0.3     0.366               0.750
$
$        C         p      lcss      lcsr
        40         5
$
$ Values for plastic stress/strain curves
     0.000     0.025     0.049     0.072     0.095     0.118     0.140     0.182
     0.366     0.424     0.476     0.507     0.529     0.546     0.559     0.584
$
$
*SECTION_SHELL
$      sid    elform      shrf       nip     propt   qr/irid     icomp
         1         2              3.0000
$       t1        t2        t3        t4      nloc
       2.0       2.0       2.0       2.0
$ 
$
$$$$$$$$$$$$$$$$$$$$$$$$$$$$$$$$$$$$$$$$$$$$$$$$$$$$$$$$$$$$$$$$$$$$$$$$$$$$$$$$
$
$$$$  Define Constraints, Boundary & Initial Conditions
$
$$$$$$$$$$$$$$$$$$$$$$$$$$$$$$$$$$$$$$$$$$$$$$$$$$$$$$$$$$$$$$$$$$$$$$$$$$$$$$$$
$
$...>....1....>....2....>....3....>....4....>....5....>....6....>....7....>....8
$
$$$$   Nodal single point constraints
$
*BOUNDARY_SPC_NODE
$      nid cid x y z rx ry rz
         1,  0,1,1,1, 1, 1, 1
         2,  0,1,1,1, 1, 1, 1
         3,  0,1,1,1, 1, 1, 1
         4,  0,1,1,1, 1, 1, 1
         5,  0,1,1,1, 1, 1, 1
         6,  0,1,1,1, 1, 1, 1
         7,  0,1,1,1, 1, 1, 1
       414,  0,1,1,1, 1, 1, 1
       415,  0,1,1,1, 1, 1, 1
       532,  0,1,1,1, 1, 1, 1
       533,  0,1,1,1, 1, 1, 1
       534,  0,1,1,1, 1, 1, 1
       535,  0,1,1,1, 1, 1, 1
       536,  0,1,1,1, 1, 1, 1
       827,  0,1,1,1, 1, 1, 1
       828,  0,1,1,1, 1, 1, 1
       829,  0,1,1,1, 1, 1, 1
       830,  0,1,1,1, 1, 1, 1
       831,  0,1,1,1, 1, 1, 1
       832,  0,1,1,1, 1, 1, 1
$ ... 32 like lines cut
$
$
$$$$$$$$$$$$$$$$$$$$$$$$$$$$$$$$$$$$$$$$$$$$$$$$$$$$$$$$$$$$$$$$$$$$$$$$$$$$$$$$
$
$$$$  Define Nodes and Elements
$
$$$$$$$$$$$$$$$$$$$$$$$$$$$$$$$$$$$$$$$$$$$$$$$$$$$$$$$$$$$$$$$$$$$$$$$$$$$$$$$$
$
$...>....1....>....2....>....3....>....4....>....5....>....6....>....7....>....8
$
$ NODAL POINT CARDS
*NODE
$    nid               x               y               z      tc      rc
   99999             0.0             0.0           274.0       0       0
       1 8.000000000E+00 0.000000000E+00 0.000000000E+00       0       0
       2 1.633330000E+01 0.000000000E+00 0.000000000E+00       0       0
       3 2.466670000E+01 0.000000000E+00 0.000000000E+00       0       0
       4 3.300000000E+01 0.000000000E+00 0.000000000E+00       0       0
       5 4.133330000E+01 0.000000000E+00 0.000000000E+00       0       0
       6 4.966670000E+01 0.000000000E+00 0.000000000E+00       0       0
       7 5.800000000E+01 0.000000000E+00 0.000000000E+00       0       0
       8 8.000000000E+00 0.000000000E+00 7.568970000E+00       0       0
       9 1.633330000E+01 0.000000000E+00 7.568970000E+00       0       0
      10 2.466670000E+01 0.000000000E+00 7.568970000E+00       0       0
      11 3.300000000E+01 0.000000000E+00 7.568970000E+00       0       0
      12 4.133330000E+01 0.000000000E+00 7.568970000E+00       0       0
      13 4.966670000E+01 0.000000000E+00 7.568970000E+00       0       0
      14 5.800000000E+01 0.000000000E+00 7.568970000E+00       0       0
      15 8.000000000E+00 0.000000000E+00 1.513790000E+01       0       0
      16 1.633330000E+01 0.000000000E+00 1.513790000E+01       0       0
      17 2.466670000E+01 0.000000000E+00 1.513790000E+01       0       0
      18 3.300000000E+01 0.000000000E+00 1.513790000E+01       0       0
      19 4.133330000E+01 0.000000000E+00 1.513790000E+01       0       0
$ ... 1905 like lines cut
$
*ELEMENT_SHELL
$    eid     pid      n1      n2      n3      n4   
     752       1     547     552     553     553
     753       1     553     548     547     547
    1507       2    1373    2141    1378    1378
    1508       2    2141    1373    2137    2137
    2262       3    1373    1378    1379    1379
    2263       3    1379    1374    1373    1373
    3017       4     547    2849     552     552
    3018       4    2849     547    2845    2845
       1       1       1       2       9       8
       2       1       2       3      10       9
       3       1       3       4      11      10
       4       1       4       5      12      11
       5       1       5       6      13      12
       6       1       6       7      14      13
       7       1       8       9      16      15
       8       1       9      10      17      16
       9       1      10      11      18      17
      10       1      11      12      19      18
      11       1      12      13      20      19
      12       1      13      14      21      20
$ ... 264 like lines cut
$     409       1     211     474     476     218
$     410       1     474     475     477     476
     411       1     218     476     478     225
     412       1     476     477     479     478
     413       1     225     478     480     232
     414       1     478     479     481     480
     415       1     232     480     482     239
     416       1     480     481     483     482
     417       1     239     482     484     246
     418       1     482     483     485     484
     419       1     246     484     486     253
     420       1     484     485     487     486
     463       1     532     533     538     537
     464       1     533     534     539     538
     465       1     534     535     540     539
     466       1     535     536     541     540
     467       1     536     415     417     541
     468       1     537     538     543     542
     469       1     538     539     544     543
     470       1     539     540     545     544
     471       1     540     541     546     545
     472       1     541     417     419     546
$ ... 445 like lines cut
$    1164       2    1833    1839    2069    2067
$    1165       2    2067    2069    2070    2068
    1166       2    1839    1845    2071    2069
    1167       2    2069    2071    2072    2070
    1168       2    1845    1851    2073    2071
    1169       2    2071    2073    2074    2072
    1170       2    1851    1857    2075    2073
    1171       2    2073    2075    2076    2074
    1172       2    1857    1863    2077    2075
    1173       2    2075    2077    2078    2076
    1174       2    1863    1869    2079    2077
    1175       2    2077    2079    2080    2078
    1218       2    1358    1363    2129    2125
    1219       2    2125    2129    2130    2126
    1220       2    2126    2130    2131    2127
    1221       2    2127    2131    2132    2128
    1222       2    2128    2132    2010    2008
    1223       2    1363    1368    2133    2129
    1224       2    2129    2133    2134    2130
    1225       2    2130    2134    2135    2131
    1226       2    2131    2135    2136    2132
    1227       2    2132    2136    2012    2010
$ ... 445 like lines cut
$    1919       3    1037    1300    1302    1044
$    1920       3    1300    1301    1303    1302
    1921       3    1044    1302    1304    1051
    1922       3    1302    1303    1305    1304
    1923       3    1051    1304    1306    1058
    1924       3    1304    1305    1307    1306
    1925       3    1058    1306    1308    1065
    1926       3    1306    1307    1309    1308
    1927       3    1065    1308    1310    1072
    1928       3    1308    1309    1311    1310
    1929       3    1072    1310    1312    1079
    1930       3    1310    1311    1313    1312
    1973       3    1358    1359    1364    1363
    1974       3    1359    1360    1365    1364
    1975       3    1360    1361    1366    1365
    1976       3    1361    1362    1367    1366
    1977       3    1362    1241    1243    1367
    1978       3    1363    1364    1369    1368
    1979       3    1364    1365    1370    1369
    1980       3    1365    1366    1371    1370
    1981       3    1366    1367    1372    1371
    1982       3    1367    1243    1245    1372
$ ... 445 like lines cut
$    2674       4    2541    2547    2777    2775
$    2675       4    2775    2777    2778    2776
    2676       4    2547    2553    2779    2777
    2677       4    2777    2779    2780    2778
    2678       4    2553    2559    2781    2779
    2679       4    2779    2781    2782    2780
    2680       4    2559    2565    2783    2781
    2681       4    2781    2783    2784    2782
    2682       4    2565    2571    2785    2783
    2683       4    2783    2785    2786    2784
    2684       4    2571    2577    2787    2785
    2685       4    2785    2787    2788    2786
    2728       4     532     537    2837    2833
    2729       4    2833    2837    2838    2834
    2730       4    2834    2838    2839    2835
    2731       4    2835    2839    2840    2836
    2732       4    2836    2840    2718    2716
    2733       4     537     542    2841    2837
    2734       4    2837    2841    2842    2838
    2735       4    2838    2842    2843    2839
    2736       4    2839    2843    2844    2840
    2737       4    2840    2844    2720    2718
$ ... 169 like lines cut
$
$
*END
