$# LS-DYNA Keyword file created by LS-PrePost 4.2 (Alpha) - 04May2014(12:00)
$# Created on Jul-30-2014 (19:21:07)
*KEYWORD  
*TITLE
$# title
implicit tensile test
*PART
$# title
shell tensile strip
$#     pid     secid       mid     eosid      hgid      grav    adpopt      tmid
         1         1         1         0         0         0         0         0
*SECTION_SHELL
$#   secid    elform      shrf       nip     propt   qr/irid     icomp     setyp
         1         2  1.000000         2         1         0         0         1
$#      t1        t2        t3        t4      nloc     marea      idof    edgset
  2.670000  2.670000  2.670000  2.670000     0.000     0.000     0.000         0
$---+----1----+----2----+----3----+----4----+----5----+----6----+----7----+----8
*MAT_ELASTIC
$      MID        RO         E        PR
$#     mid        ro         e        pr        da        db  not used
         1 7.8000E-9 2.0700E+5  0.280000     0.000     0.000         0
$---+----1----+----2----+----3----+----4----+----5----+----6----+----7----+----8
*NODE
$#   nid               x               y               z      tc      rc
      14       10.000000       16.000000           0.000       0       0
      15       10.000000       12.000000           0.000       0       0
      16       10.000000        8.000000           0.000       0       0
      17       10.000000        4.000000           0.000       0       0
      18       20.000000       16.000000           0.000       0       0
      19       20.000000       12.000000           0.000       0       0
      20       20.000000        8.000000           0.000       0       0
      21       20.000000        4.000000           0.000       0       0
      22       30.000000       16.000000           0.000       0       0
      23       30.000000       12.000000           0.000       0       0
      24       30.000000        8.000000           0.000       0       0
      25       30.000000        4.000000           0.000       0       0
      26       40.000000       16.000000           0.000       0       0
      27       40.000000       12.000000           0.000       0       0
      28       40.000000        8.000000           0.000       0       0
      29       40.000000        4.000000           0.000       0       0
      30           0.000       16.000000           0.000       0       0
      31           0.000       12.000000           0.000       0       0
      32           0.000        8.000000           0.000       0       0
      33           0.000        4.000000           0.000       0       0
$ ... 651 like lines cut
*ELEMENT_SHELL
$#   eid     pid      n1      n2      n3      n4      n5      n6      n7      n8
       1       1      38     222     226     225       0       0       0       0
       2       1      30     227     230     223       0       0       0       0
       3       1      31     231     234     228       0       0       0       0
       4       1      32     235     238     232       0       0       0       0
       5       1      33     239     242     236       0       0       0       0
       6       1      40     224     246     245       0       0       0       0
       7       1      14     229     249     243       0       0       0       0
       8       1      15     233     252     247       0       0       0       0
       9       1      16     237     255     250       0       0       0       0
      10       1      17     241     258     253       0       0       0       0
      11       1      42     244     262     261       0       0       0       0
      12       1      18     248     265     259       0       0       0       0
      13       1      19     251     268     263       0       0       0       0
      14       1      20     254     271     266       0       0       0       0
      15       1      21     257     274     269       0       0       0       0
      16       1      44     260     278     277       0       0       0       0
      17       1      22     264     281     275       0       0       0       0
      18       1      23     267     284     279       0       0       0       0
      19       1      24     270     287     282       0       0       0       0
      20       1      25     273     290     285       0       0       0       0
$ ... 580 like lines cut
*BOUNDARY_SPC_NODE
$#     nid       cid      dofx      dofy      dofz     dofrx     dofry     dofrz
        30         0         1         1         1         1         1         1
        31         0         1         1         1         1         1         1
        32         0         1         1         1         1         1         1
        33         0         1         1         1         1         1         1
        38         0         1         1         1         1         1         1
        39         0         1         1         1         1         1         1
*CONTROL_IMPLICIT_AUTO
$    iauto    iteopt    itewin     dtmin     dtmax
$#   iauto    iteopt    itewin     dtmin     dtmax     dtexp     kfail    kcycle
         0         0         0     0.000     0.000     0.000         0         0
$---+----1----+----2----+----3----+----4----+----5----+----6----+----7----+----8
*CONTROL_IMPLICIT_GENERAL
$   imflag       dt0      iefs   nstepsb       igs
$#  imflag       dt0    imform      nsbs       igs     cnstn      form    zero_v
         1  1.000000         2         0         2         0         0         0
*CONTROL_IMPLICIT_SOLUTION
$  nlsolvr    ilimit    maxref     dctol     ectol     rctol     lstol
$#  nsolvr    ilimit    maxref     dctol     ectol     rctol     lstol    abstol
         2         0         0     0.000     0.000     0.000     0.0001.0000E-10
$    dnorm   divflag   inistif   nlprint
$#   dnorm    diverg     istif   nlprint    nlnorm   d3itctl     cpchk
         2         1         0         0         2         0         0
$#  arcctl    arcdir    arclen    arcmth    arcdmp
         0         0     0.000         1         2
*CONTROL_IMPLICIT_SOLVER
$   lsolvr   prntflg    negeig
$#  lsolvr    lprint     negev     order      drcm    drcprm   autospc   autotol
         4         0         2         0         4     0.000         1     0.000
$#  lcpack    mtxdmp
         2         0
$ test coupon: 200 mm long, 20 mm width, 2.67 mm thickness, 50.8 mm gauge length
$ units; mm, s, ton, N
$ A. Tabiei
$---+----1----+----2----+----3----+----4----+----5----+----6----+----7----+----8
*CONTROL_TERMINATION
$#  endtim    endcyc     dtmin    endeng    endmas
  1.000000         0     0.000     0.000     0.000
*DATABASE_NODFOR
$#      dt    binary      lcur     ioopt
 1.0000E-2         0         0         1
*DATABASE_NODOUT
$#      dt    binary      lcur     ioopt   option1   option2
 1.0000E-2         0         0         1     0.000         0
$   cmpflg    ieverp    beamip
$---+----1----+----2----+----3----+----4----+----5----+----6----+----7----+----8
*DATABASE_BINARY_D3PLOT
$#      dt      lcdt      beam     npltc    psetid
 1.0000E-2         0         0         0         0
$#   ioopt
         0
$---+----1----+----2----+----3----+----4----+----5----+----6----+----7----+----8
*DATABASE_EXTENT_BINARY
$    neiph     neips    maxint    strflg    sigflg    epsflg    rltflg    engflg
$#   neiph     neips    maxint    strflg    sigflg    epsflg    rltflg    engflg
         0         0         0         1         1         1         1         1
$#  cmpflg    ieverp    beamip     dcomp      shge     stssz    n3thdt   ialemat
         0         0         0         1         1         1         2         1
*DATABASE_NODAL_FORCE_GROUP
$#    nsid       cid
         2         0
$---+----1----+----2----+----3----+----4----+----5----+----6----+----7----+----8
*DEFINE_CURVE
$#    lcid      sidr       sfa       sfo      offa      offo    dattyp
         1         0  1.000000  1.000000     0.000     0.000         0
$#                a1                  o1
               0.000               0.000
            1.000000          200.000000
*LOAD_NODE_POINT
$     Node       DOF      LCID        SF
$#     nid       dof      lcid        sf       cid        m1        m2        m3
       204         1         1  1.000000         0         0         0         0
       205         1         1  1.000000         0         0         0         0
       206         1         1  1.000000         0         0         0         0
       207         1         1  1.000000         0         0         0         0
       212         1         1  0.500000         0         0         0         0
       213         1         1  0.500000         0         0         0         0
*SET_NODE_LIST
$#     sid       da1       da2       da3       da4    solver
         2     0.000     0.000     0.000     0.000          
$#    nid1      nid2      nid3      nid4      nid5      nid6      nid7      nid8
        30        31        32        33        38        39         0         0
*END
