*KEYWORD
*TITLE
implicit tensile test
$
$ test coupon: 200 mm long, 20 mm width, 2.67 mm thickness, 50.8 mm gauge length
$
$ units; mm, s, ton, N
$
$ A. Tabiei
$
$---+----1----+----2----+----3----+----4----+----5----+----6----+----7----+----8
$
*CONTROL_TERMINATION
    1.0000
$
$---+----1----+----2----+----3----+----4----+----5----+----6----+----7----+----8
$
*CONTROL_IMPLICIT_GENERAL
$   imflag       dt0      iefs   nstepsb       igs
         1       1.0         0         0         0
$
*CONTROL_IMPLICIT_SOLUTION
$  nlsolvr    ilimit    maxref     dctol     ectol     rctol     lstol
         0         0         0       0.0       0.0         0         0
$    dnorm   divflag   inistif   nlprint
         0         0         0         0
$
*CONTROL_IMPLICIT_SOLVER
$   lsolvr   prntflg    negeig
         0         0         0
$
*CONTROL_IMPLICIT_AUTO
$    iauto    iteopt    itewin     dtmin     dtmax
         0         0         0       0.0       0.0
$
$---+----1----+----2----+----3----+----4----+----5----+----6----+----7----+----8
$
*DATABASE_EXTENT_BINARY
$    neiph     neips    maxint    strflg    sigflg    epsflg    rltflg    engflg
                                       1         1                                  
$   cmpflg    ieverp    beamip
                    
$---+----1----+----2----+----3----+----4----+----5----+----6----+----7----+----8
$
*DATABASE_BINARY_D3PLOT
    0.010
*DATABASE_NODFOR
    0.010
*DATABASE_NODOUT
    0.010
*DATABASE_NODAL_FORCE_GROUP
        2
*SET_NODE_LIST
        2
30,31,32,33,38,39
$
$---+----1----+----2----+----3----+----4----+----5----+----6----+----7----+----8
$
*MAT_elastic
$      MID        RO         E        PR
         1 0.780E-08 0.207E+06 0.280E+00    
$
*SECTION_SHELL
         1         0
 2.670E-00 2.670E-00 2.670E-00 2.670E-00
$
*PART
shell tensile strip
         1         1         1 
$
$---+----1----+----2----+----3----+----4----+----5----+----6----+----7----+----8
$
*DEFINE_CURVE
         1
0.00000000000000E+00 0.0000000000000E+00
1.00000000000000E+00 2.0000000000000E+02
$
*load_node_point
$     Node       DOF      LCID        SF
       204         1         1         1 
       205         1         1         1
       206         1         1         1 
       207         1         1         1
       212         1         1       0.5 
       213         1         1       0.5 
$
*BOUNDARY_SPC_NODE
        30         0         1         1         1         1         1         1
        31         0         1         1         1         1         1         1
        32         0         1         1         1         1         1         1
        33         0         1         1         1         1         1         1
        38         0         1         1         1         1         1         1
        39         0         1         1         1         1         1         1
$
$---+----1----+----2----+----3----+----4----+----5----+----6----+----7----+----8
$
*NODE
      14 1.000000000E+01 1.600000000E+01 0.000000000E+00
      15 1.000000000E+01 1.200000000E+01 0.000000000E+00
      16 1.000000000E+01 8.000000000E+00 0.000000000E+00
      17 1.000000000E+01 4.000000000E+00 0.000000000E+00
      18 2.000000000E+01 1.600000000E+01 0.000000000E+00
      19 2.000000000E+01 1.200000000E+01 0.000000000E+00
      20 2.000000000E+01 8.000000000E+00 0.000000000E+00
      21 2.000000000E+01 4.000000000E+00 0.000000000E+00
      22 3.000000000E+01 1.600000000E+01 0.000000000E+00
      23 3.000000000E+01 1.200000000E+01 0.000000000E+00
      24 3.000000000E+01 8.000000000E+00 0.000000000E+00
      25 3.000000000E+01 4.000000000E+00 0.000000000E+00
      26 4.000000000E+01 1.600000000E+01 0.000000000E+00
      27 4.000000000E+01 1.200000000E+01 0.000000000E+00
      28 4.000000000E+01 8.000000000E+00 0.000000000E+00
      29 4.000000000E+01 4.000000000E+00 0.000000000E+00
      30 0.000000000E+00 1.600000000E+01 0.000000000E+00
      31 0.000000000E+00 1.200000000E+01 0.000000000E+00
      32 0.000000000E+00 8.000000000E+00 0.000000000E+00
      33 0.000000000E+00 4.000000000E+00 0.000000000E+00
$ ... 166 like lines cut
*ELEMENT_SHELL
       1       1      38      30      14      40
       2       1      30      31      15      14
       3       1      31      32      16      15
       4       1      32      33      17      16
       5       1      33      39      41      17
       6       1      40      14      18      42
       7       1      14      15      19      18
       8       1      15      16      20      19
       9       1      16      17      21      20
      10       1      17      41      43      21
      11       1      42      18      22      44
      12       1      18      19      23      22
      13       1      19      20      24      23
      14       1      20      21      25      24
      15       1      21      43      45      25
      16       1      44      22      26      46
      17       1      22      23      27      26
      18       1      23      24      28      27
      19       1      24      25      29      28
      20       1      25      45      47      29
$ ... 130 like lines cut
*END
